<?xml version="1.0" encoding="UTF-8"?>

<!-- generated on Tuesday 03 March 2020 11:36:15 PM IST by Eclipse SUMO netedit Version 1.3.1
<configuration xmlns:xsi="http://www.w3.org/2001/XMLSchema-instance" xsi:noNamespaceSchemaLocation="http://sumo.dlr.de/xsd/netconvertConfiguration.xsd">

    <output>
        <output-file value="/home/asus/4%20th%20SEM/MINI%20PROJECT%20-II%20(CS%20471)/Network/intersection.net.xml"/>
    </output>

    <processing>
        <offset.disable-normalization value="true"/>
    </processing>

    <junctions>
        <no-turnarounds value="true"/>
    </junctions>

</configuration>
-->

<net version="1.3" junctionCornerDetail="5" limitTurnSpeed="5.50" xmlns:xsi="http://www.w3.org/2001/XMLSchema-instance" xsi:noNamespaceSchemaLocation="http://sumo.dlr.de/xsd/net_file.xsd">

    <location netOffset="0.00,0.00" convBoundary="-1200.00,-400.00,0.00,600.00" origBoundary="10000000000.00,10000000000.00,-10000000000.00,-10000000000.00" projParameter="!"/>

    <edge id=":gneJ35_0" function="internal">
        <lane id=":gneJ35_0_0" index="0" speed="7.61" length="28.04" shape="-1200.00,111.20 -1207.20,106.40 -1209.60,101.60 -1207.20,96.80 -1200.00,92.00"/>
    </edge>
    <edge id=":gneJ36_0" function="internal">
        <lane id=":gneJ36_0_0" index="0" speed="6.51" length="9.03" shape="-714.40,120.00 -714.75,117.55 -715.80,115.80 -717.55,114.75 -720.00,114.40"/>
    </edge>
    <edge id=":gneJ36_1" function="internal">
        <lane id=":gneJ36_1_0" index="0" speed="7.33" length="11.73" shape="-714.40,120.00 -714.75,116.15 -715.80,113.40 -717.55,111.75 -720.00,111.20"/>
    </edge>
    <edge id=":gneJ36_2" function="internal">
        <lane id=":gneJ36_2_0" index="0" speed="13.89" length="40.00" shape="-714.40,120.00 -714.40,80.00"/>
        <lane id=":gneJ36_2_1" index="1" speed="13.89" length="40.00" shape="-711.20,120.00 -711.20,80.00"/>
        <lane id=":gneJ36_2_2" index="2" speed="13.89" length="40.00" shape="-708.00,120.00 -708.00,80.00"/>
        <lane id=":gneJ36_2_3" index="3" speed="13.89" length="40.00" shape="-704.80,120.00 -704.80,80.00"/>
        <lane id=":gneJ36_2_4" index="4" speed="13.89" length="40.00" shape="-701.60,120.00 -701.60,80.00"/>
    </edge>
    <edge id=":gneJ36_7" function="internal">
        <lane id=":gneJ36_7_0" index="0" speed="12.72" length="11.47" shape="-701.60,120.00 -700.25,109.15 -700.00,108.67"/>
    </edge>
    <edge id=":gneJ36_8" function="internal">
        <lane id=":gneJ36_8_0" index="0" speed="12.28" length="10.03" shape="-701.60,120.00 -700.25,110.55 -700.00,110.13"/>
    </edge>
    <edge id=":gneJ36_9" function="internal">
        <lane id=":gneJ36_9_0" index="0" speed="3.65" length="2.34" shape="-701.60,120.00 -700.80,118.80 -700.00,118.40"/>
    </edge>
    <edge id=":gneJ36_63" function="internal">
        <lane id=":gneJ36_63_0" index="0" speed="12.72" length="25.98" shape="-700.00,108.67 -696.20,101.40 -689.45,96.75 -680.00,95.20"/>
    </edge>
    <edge id=":gneJ36_64" function="internal">
        <lane id=":gneJ36_64_0" index="0" speed="12.28" length="24.80" shape="-700.00,110.13 -696.20,103.80 -689.45,99.75 -680.00,98.40"/>
    </edge>
    <edge id=":gneJ36_65" function="internal">
        <lane id=":gneJ36_65_0" index="0" speed="3.65" length="2.34" shape="-700.00,118.40 -699.20,118.80 -698.40,120.00"/>
    </edge>
    <edge id=":gneJ36_10" function="internal">
        <lane id=":gneJ36_10_0" index="0" speed="6.51" length="9.03" shape="-680.00,114.40 -682.45,114.75 -684.20,115.80 -685.25,117.55 -685.60,120.00"/>
    </edge>
    <edge id=":gneJ36_11" function="internal">
        <lane id=":gneJ36_11_0" index="0" speed="8.00" length="14.19" shape="-680.00,111.20 -683.85,111.75 -686.60,113.40 -688.25,116.15 -688.80,120.00"/>
    </edge>
    <edge id=":gneJ36_12" function="internal">
        <lane id=":gneJ36_12_0" index="0" speed="8.67" length="16.85" shape="-680.00,111.20 -685.25,111.75 -689.00,113.40 -691.25,116.15 -692.00,120.00"/>
    </edge>
    <edge id=":gneJ36_13" function="internal">
        <lane id=":gneJ36_13_0" index="0" speed="13.89" length="40.00" shape="-680.00,111.20 -720.00,111.20"/>
    </edge>
    <edge id=":gneJ36_14" function="internal">
        <lane id=":gneJ36_14_0" index="0" speed="13.89" length="27.07" shape="-680.00,111.20 -689.12,107.58 -700.53,98.93 -702.55,96.80"/>
    </edge>
    <edge id=":gneJ36_15" function="internal">
        <lane id=":gneJ36_15_0" index="0" speed="13.89" length="25.59" shape="-680.00,111.20 -688.62,107.58 -698.93,98.93 -700.72,96.80"/>
    </edge>
    <edge id=":gneJ36_16" function="internal">
        <lane id=":gneJ36_16_0" index="0" speed="9.84" length="8.68" shape="-680.00,108.00 -686.65,108.75 -688.44,109.60"/>
    </edge>
    <edge id=":gneJ36_17" function="internal">
        <lane id=":gneJ36_17_0" index="0" speed="10.41" length="10.42" shape="-680.00,108.00 -688.05,108.75 -690.22,109.60"/>
    </edge>
    <edge id=":gneJ36_18" function="internal">
        <lane id=":gneJ36_18_0" index="0" speed="13.89" length="40.00" shape="-680.00,108.00 -720.00,108.00"/>
    </edge>
    <edge id=":gneJ36_19" function="internal">
        <lane id=":gneJ36_19_0" index="0" speed="7.00" length="12.40" shape="-680.00,108.00 -686.00,104.00 -688.00,100.00 -687.68,99.36"/>
    </edge>
    <edge id=":gneJ36_20" function="internal">
        <lane id=":gneJ36_20_0" index="0" speed="13.89" length="40.54" shape="-680.00,104.80 -692.03,106.30 -700.00,109.60 -707.97,112.90 -720.00,114.40"/>
        <lane id=":gneJ36_20_1" index="1" speed="13.89" length="40.54" shape="-680.00,104.80 -720.00,104.80"/>
        <lane id=":gneJ36_20_2" index="2" speed="13.89" length="40.54" shape="-680.00,104.80 -720.00,101.60"/>
    </edge>
    <edge id=":gneJ36_23" function="internal">
        <lane id=":gneJ36_23_0" index="0" speed="12.62" length="13.11" shape="-680.00,104.80 -687.62,102.17 -691.58,99.04"/>
    </edge>
    <edge id=":gneJ36_24" function="internal">
        <lane id=":gneJ36_24_0" index="0" speed="4.72" length="6.77" shape="-680.00,104.80 -682.40,103.20 -683.20,101.60 -682.40,100.00 -682.14,99.83"/>
    </edge>
    <edge id=":gneJ36_25" function="internal">
        <lane id=":gneJ36_25_0" index="0" speed="11.87" length="7.56" shape="-680.00,101.60 -687.12,99.47 -687.22,99.40"/>
    </edge>
    <edge id=":gneJ36_66" function="internal">
        <lane id=":gneJ36_66_0" index="0" speed="13.89" length="20.81" shape="-702.55,96.80 -710.27,88.62 -714.40,80.00"/>
    </edge>
    <edge id=":gneJ36_67" function="internal">
        <lane id=":gneJ36_67_0" index="0" speed="13.89" length="20.02" shape="-700.72,96.80 -707.58,88.62 -711.20,80.00"/>
    </edge>
    <edge id=":gneJ36_68" function="internal">
        <lane id=":gneJ36_68_0" index="0" speed="9.84" length="13.32" shape="-688.44,109.60 -691.40,111.00 -694.25,114.75 -695.20,120.00"/>
    </edge>
    <edge id=":gneJ36_69" function="internal">
        <lane id=":gneJ36_69_0" index="0" speed="10.41" length="14.31" shape="-690.22,109.60 -693.80,111.00 -697.25,114.75 -698.40,120.00"/>
    </edge>
    <edge id=":gneJ36_70" function="internal">
        <lane id=":gneJ36_70_0" index="0" speed="7.00" length="10.97" shape="-687.68,99.36 -686.00,96.00 -680.00,92.00"/>
    </edge>
    <edge id=":gneJ36_71" function="internal">
        <lane id=":gneJ36_71_0" index="0" speed="12.62" length="23.73" shape="-691.58,99.04 -695.73,95.73 -702.17,87.62 -704.80,80.00"/>
    </edge>
    <edge id=":gneJ36_72" function="internal">
        <lane id=":gneJ36_72_0" index="0" speed="4.72" length="2.57" shape="-682.14,99.83 -680.00,98.40"/>
    </edge>
    <edge id=":gneJ36_73" function="internal">
        <lane id=":gneJ36_73_0" index="0" speed="11.87" length="24.94" shape="-687.22,99.40 -694.13,94.13 -699.48,87.12 -701.60,80.00"/>
    </edge>
    <edge id=":gneJ36_26" function="internal">
        <lane id=":gneJ36_26_0" index="0" speed="6.51" length="9.03" shape="-685.60,80.00 -685.25,82.45 -684.20,84.20 -682.45,85.25 -680.00,85.60"/>
    </edge>
    <edge id=":gneJ36_27" function="internal">
        <lane id=":gneJ36_27_0" index="0" speed="7.33" length="11.73" shape="-685.60,80.00 -685.25,83.85 -684.20,86.60 -682.45,88.25 -680.00,88.80"/>
    </edge>
    <edge id=":gneJ36_28" function="internal">
        <lane id=":gneJ36_28_0" index="0" speed="8.83" length="17.50" shape="-685.60,80.00 -685.25,86.65 -684.20,91.40 -682.45,94.25 -680.00,95.20"/>
    </edge>
    <edge id=":gneJ36_29" function="internal">
        <lane id=":gneJ36_29_0" index="0" speed="8.67" length="16.85" shape="-688.80,80.00 -688.25,85.25 -686.60,89.00 -683.85,91.25 -680.00,92.00"/>
    </edge>
    <edge id=":gneJ36_30" function="internal">
        <lane id=":gneJ36_30_0" index="0" speed="13.89" length="40.00" shape="-688.80,80.00 -688.80,120.00"/>
    </edge>
    <edge id=":gneJ36_31" function="internal">
        <lane id=":gneJ36_31_0" index="0" speed="7.61" length="15.81" shape="-688.80,80.00 -693.60,87.20 -698.40,89.60 -700.00,88.80"/>
    </edge>
    <edge id=":gneJ36_32" function="internal">
        <lane id=":gneJ36_32_0" index="0" speed="10.41" length="10.42" shape="-692.00,80.00 -691.25,88.05 -690.40,90.22"/>
    </edge>
    <edge id=":gneJ36_33" function="internal">
        <lane id=":gneJ36_33_0" index="0" speed="13.89" length="40.34" shape="-692.00,80.00 -691.00,91.95 -688.80,100.00 -686.60,108.05 -685.60,120.00"/>
        <lane id=":gneJ36_33_1" index="1" speed="13.89" length="40.34" shape="-692.00,80.00 -692.00,120.00"/>
    </edge>
    <edge id=":gneJ36_35" function="internal">
        <lane id=":gneJ36_35_0" index="0" speed="13.89" length="23.74" shape="-692.00,80.00 -693.75,92.25 -699.00,101.00 -700.00,101.60"/>
    </edge>
    <edge id=":gneJ36_36" function="internal">
        <lane id=":gneJ36_36_0" index="0" speed="13.89" length="40.00" shape="-695.20,80.00 -695.20,120.00"/>
    </edge>
    <edge id=":gneJ36_37" function="internal">
        <lane id=":gneJ36_37_0" index="0" speed="4.72" length="2.61" shape="-698.40,80.00 -700.00,82.40"/>
        <lane id=":gneJ36_37_1" index="1" speed="3.65" length="2.61" shape="-698.40,80.00 -699.20,81.20 -700.00,81.60"/>
    </edge>
    <edge id=":gneJ36_39" function="internal">
        <lane id=":gneJ36_39_0" index="0" speed="13.89" length="15.82" shape="-698.40,80.00 -699.75,95.05 -700.00,95.71"/>
    </edge>
    <edge id=":gneJ36_40" function="internal">
        <lane id=":gneJ36_40_0" index="0" speed="13.58" length="14.37" shape="-698.40,80.00 -699.75,93.65 -700.00,94.25"/>
    </edge>
    <edge id=":gneJ36_41" function="internal">
        <lane id=":gneJ36_41_0" index="0" speed="12.72" length="11.47" shape="-698.40,80.00 -699.75,90.85 -700.00,91.33"/>
    </edge>
    <edge id=":gneJ36_42" function="internal">
        <lane id=":gneJ36_42_0" index="0" speed="12.28" length="10.03" shape="-698.40,80.00 -699.75,89.45 -700.00,89.87"/>
    </edge>
    <edge id=":gneJ36_43" function="internal">
        <lane id=":gneJ36_43_0" index="0" speed="13.89" length="40.00" shape="-698.40,80.00 -698.40,120.00"/>
    </edge>
    <edge id=":gneJ36_74" function="internal">
        <lane id=":gneJ36_74_0" index="0" speed="7.61" length="12.23" shape="-700.00,88.80 -703.20,87.20 -708.00,80.00"/>
    </edge>
    <edge id=":gneJ36_75" function="internal">
        <lane id=":gneJ36_75_0" index="0" speed="10.41" length="14.31" shape="-690.40,90.22 -689.00,93.80 -685.25,97.25 -680.00,98.40"/>
    </edge>
    <edge id=":gneJ36_76" function="internal">
        <lane id=":gneJ36_76_0" index="0" speed="13.89" length="21.41" shape="-700.00,101.60 -707.75,106.25 -720.00,108.00"/>
    </edge>
    <edge id=":gneJ36_77" function="internal">
        <lane id=":gneJ36_77_0" index="0" speed="4.72" length="6.46" shape="-700.00,82.40 -701.60,83.20 -703.20,82.40 -704.80,80.00"/>
    </edge>
    <edge id=":gneJ36_78" function="internal">
        <lane id=":gneJ36_78_0" index="0" speed="3.65" length="2.34" shape="-700.00,81.60 -700.80,81.20 -701.60,80.00"/>
    </edge>
    <edge id=":gneJ36_79" function="internal">
        <lane id=":gneJ36_79_0" index="0" speed="13.89" length="29.81" shape="-700.00,95.71 -703.80,105.80 -710.55,112.25 -720.00,114.40"/>
    </edge>
    <edge id=":gneJ36_80" function="internal">
        <lane id=":gneJ36_80_0" index="0" speed="13.58" length="28.49" shape="-700.00,94.25 -703.80,103.40 -710.55,109.25 -720.00,111.20"/>
    </edge>
    <edge id=":gneJ36_81" function="internal">
        <lane id=":gneJ36_81_0" index="0" speed="12.72" length="25.98" shape="-700.00,91.33 -703.80,98.60 -710.55,103.25 -720.00,104.80"/>
    </edge>
    <edge id=":gneJ36_82" function="internal">
        <lane id=":gneJ36_82_0" index="0" speed="12.28" length="24.80" shape="-700.00,89.87 -703.80,96.20 -710.55,100.25 -720.00,101.60"/>
    </edge>
    <edge id=":gneJ36_44" function="internal">
        <lane id=":gneJ36_44_0" index="0" speed="13.89" length="28.08" shape="-720.00,85.60 -710.88,89.72 -699.47,99.47 -697.48,101.80"/>
    </edge>
    <edge id=":gneJ36_45" function="internal">
        <lane id=":gneJ36_45_0" index="0" speed="6.51" length="9.03" shape="-720.00,85.60 -717.55,85.25 -715.80,84.20 -714.75,82.45 -714.40,80.00"/>
    </edge>
    <edge id=":gneJ36_46" function="internal">
        <lane id=":gneJ36_46_0" index="0" speed="8.00" length="14.19" shape="-720.00,88.80 -716.15,88.25 -713.40,86.60 -711.75,83.85 -711.20,80.00"/>
    </edge>
    <edge id=":gneJ36_47" function="internal">
        <lane id=":gneJ36_47_0" index="0" speed="8.67" length="16.85" shape="-720.00,88.80 -714.75,88.25 -711.00,86.60 -708.75,83.85 -708.00,80.00"/>
    </edge>
    <edge id=":gneJ36_48" function="internal">
        <lane id=":gneJ36_48_0" index="0" speed="13.89" length="23.43" shape="-720.00,88.80 -711.38,92.42 -701.07,101.07 -700.67,101.54"/>
    </edge>
    <edge id=":gneJ36_49" function="internal">
        <lane id=":gneJ36_49_0" index="0" speed="13.89" length="40.34" shape="-720.00,88.80 -680.00,88.80"/>
        <lane id=":gneJ36_49_1" index="1" speed="13.89" length="40.34" shape="-720.00,92.00 -708.05,93.00 -700.00,95.20 -691.95,97.40 -680.00,98.40"/>
    </edge>
    <edge id=":gneJ36_51" function="internal">
        <lane id=":gneJ36_51_0" index="0" speed="7.61" length="13.04" shape="-720.00,92.00 -712.80,96.80 -710.84,100.73"/>
    </edge>
    <edge id=":gneJ36_52" function="internal">
        <lane id=":gneJ36_52_0" index="0" speed="13.33" length="18.36" shape="-720.00,92.00 -711.88,95.12 -704.41,101.24"/>
    </edge>
    <edge id=":gneJ36_53" function="internal">
        <lane id=":gneJ36_53_0" index="0" speed="13.89" length="40.00" shape="-720.00,92.00 -680.00,92.00"/>
        <lane id=":gneJ36_53_1" index="1" speed="13.89" length="40.00" shape="-720.00,95.20 -680.00,95.20"/>
    </edge>
    <edge id=":gneJ36_55" function="internal">
        <lane id=":gneJ36_55_0" index="0" speed="10.88" length="7.96" shape="-720.00,95.20 -712.10,94.27"/>
    </edge>
    <edge id=":gneJ36_56" function="internal">
        <lane id=":gneJ36_56_0" index="0" speed="12.62" length="13.03" shape="-720.00,95.20 -712.38,97.83 -708.48,100.92"/>
    </edge>
    <edge id=":gneJ36_57" function="internal">
        <lane id=":gneJ36_57_0" index="0" speed="13.89" length="42.63" shape="-720.00,98.40 -707.84,96.40 -700.00,92.00 -692.16,87.60 -680.00,85.60"/>
    </edge>
    <edge id=":gneJ36_58" function="internal">
        <lane id=":gneJ36_58_0" index="0" speed="11.87" length="7.44" shape="-720.00,98.40 -712.88,100.53"/>
    </edge>
    <edge id=":gneJ36_59" function="internal">
        <lane id=":gneJ36_59_0" index="0" speed="10.88" length="7.51" shape="-720.00,98.40 -713.35,97.25 -712.73,96.80"/>
    </edge>
    <edge id=":gneJ36_60" function="internal">
        <lane id=":gneJ36_60_0" index="0" speed="5.58" length="2.95" shape="-720.00,98.40 -717.28,100.21"/>
        <lane id=":gneJ36_60_1" index="1" speed="4.72" length="2.95" shape="-720.00,98.40 -717.60,100.00 -717.50,100.19"/>
        <lane id=":gneJ36_60_2" index="2" speed="3.65" length="2.95" shape="-720.00,98.40 -718.80,99.20 -718.40,100.00 -718.46,100.12"/>
    </edge>
    <edge id=":gneJ36_83" function="internal">
        <lane id=":gneJ36_83_0" index="0" speed="13.89" length="21.95" shape="-697.48,101.80 -689.73,110.88 -685.60,120.00"/>
    </edge>
    <edge id=":gneJ36_84" function="internal">
        <lane id=":gneJ36_84_0" index="0" speed="13.89" length="22.19" shape="-700.67,101.54 -692.42,111.38 -688.80,120.00"/>
    </edge>
    <edge id=":gneJ36_85" function="internal">
        <lane id=":gneJ36_85_0" index="0" speed="7.61" length="14.99" shape="-710.84,100.73 -710.40,101.60 -712.80,106.40 -720.00,111.20"/>
    </edge>
    <edge id=":gneJ36_86" function="internal">
        <lane id=":gneJ36_86_0" index="0" speed="13.33" length="22.86" shape="-704.41,101.24 -702.67,102.67 -695.12,111.88 -692.00,120.00"/>
    </edge>
    <edge id=":gneJ36_87" function="internal">
        <lane id=":gneJ36_87_0" index="0" speed="10.88" length="19.18" shape="-712.10,94.27 -711.95,94.25 -706.20,91.40 -702.75,86.65 -701.60,80.00"/>
    </edge>
    <edge id=":gneJ36_88" function="internal">
        <lane id=":gneJ36_88_0" index="0" speed="12.62" length="23.81" shape="-708.48,100.92 -704.27,104.27 -697.83,112.38 -695.20,120.00"/>
    </edge>
    <edge id=":gneJ36_89" function="internal">
        <lane id=":gneJ36_89_0" index="0" speed="11.87" length="25.06" shape="-712.88,100.53 -705.87,105.87 -700.52,112.88 -698.40,120.00"/>
    </edge>
    <edge id=":gneJ36_90" function="internal">
        <lane id=":gneJ36_90_0" index="0" speed="10.88" length="19.63" shape="-712.73,96.80 -708.60,93.80 -705.75,88.05 -704.80,80.00"/>
    </edge>
    <edge id=":gneJ36_91" function="internal">
        <lane id=":gneJ36_91_0" index="0" speed="5.58" length="10.75" shape="-717.28,100.21 -716.40,100.80 -715.20,103.20 -716.40,105.60 -720.00,108.00"/>
    </edge>
    <edge id=":gneJ36_92" function="internal">
        <lane id=":gneJ36_92_0" index="0" speed="4.72" length="6.24" shape="-717.50,100.19 -716.80,101.60 -717.60,103.20 -720.00,104.80"/>
    </edge>
    <edge id=":gneJ36_93" function="internal">
        <lane id=":gneJ36_93_0" index="0" speed="3.65" length="2.20" shape="-718.46,100.12 -718.80,100.80 -720.00,101.60"/>
    </edge>
    <edge id=":gneJ43_0" function="internal">
        <lane id=":gneJ43_0_0" index="0" speed="6.51" length="9.03" shape="-614.40,120.00 -614.75,117.55 -615.80,115.80 -617.55,114.75 -620.00,114.40"/>
    </edge>
    <edge id=":gneJ43_1" function="internal">
        <lane id=":gneJ43_1_0" index="0" speed="7.33" length="11.73" shape="-614.40,120.00 -614.75,116.15 -615.80,113.40 -617.55,111.75 -620.00,111.20"/>
    </edge>
    <edge id=":gneJ43_2" function="internal">
        <lane id=":gneJ43_2_0" index="0" speed="13.89" length="40.00" shape="-614.40,120.00 -614.40,80.00"/>
    </edge>
    <edge id=":gneJ43_3" function="internal">
        <lane id=":gneJ43_3_0" index="0" speed="13.89" length="34.50" shape="-614.40,120.00 -610.27,110.88 -600.53,99.47 -593.32,93.31"/>
    </edge>
    <edge id=":gneJ43_4" function="internal">
        <lane id=":gneJ43_4_0" index="0" speed="13.89" length="40.00" shape="-611.20,120.00 -611.20,80.00"/>
        <lane id=":gneJ43_4_1" index="1" speed="13.89" length="40.00" shape="-608.00,120.00 -608.00,80.00"/>
    </edge>
    <edge id=":gneJ43_6" function="internal">
        <lane id=":gneJ43_6_0" index="0" speed="9.84" length="6.41" shape="-604.80,120.00 -605.75,114.75 -606.40,113.89"/>
    </edge>
    <edge id=":gneJ43_7" function="internal">
        <lane id=":gneJ43_7_0" index="0" speed="10.36" length="7.98" shape="-604.80,120.00 -605.75,113.35 -606.40,112.27"/>
    </edge>
    <edge id=":gneJ43_8" function="internal">
        <lane id=":gneJ43_8_0" index="0" speed="13.89" length="40.00" shape="-604.80,120.00 -604.80,80.00"/>
    </edge>
    <edge id=":gneJ43_9" function="internal">
        <lane id=":gneJ43_9_0" index="0" speed="13.89" length="21.29" shape="-604.80,120.00 -603.25,106.35 -600.00,99.54"/>
    </edge>
    <edge id=":gneJ43_10" function="internal">
        <lane id=":gneJ43_10_0" index="0" speed="13.54" length="19.27" shape="-604.80,120.00 -603.25,107.75 -600.00,101.63"/>
    </edge>
    <edge id=":gneJ43_11" function="internal">
        <lane id=":gneJ43_11_0" index="0" speed="13.89" length="40.00" shape="-601.60,120.00 -601.60,80.00"/>
    </edge>
    <edge id=":gneJ43_12" function="internal">
        <lane id=":gneJ43_12_0" index="0" speed="12.72" length="11.47" shape="-601.60,120.00 -600.25,109.15 -600.00,108.67"/>
    </edge>
    <edge id=":gneJ43_13" function="internal">
        <lane id=":gneJ43_13_0" index="0" speed="12.28" length="10.03" shape="-601.60,120.00 -600.25,110.55 -600.00,110.13"/>
    </edge>
    <edge id=":gneJ43_54" function="internal">
        <lane id=":gneJ43_54_0" index="0" speed="13.89" length="15.53" shape="-593.32,93.31 -589.12,89.72 -580.00,85.60"/>
    </edge>
    <edge id=":gneJ43_55" function="internal">
        <lane id=":gneJ43_55_0" index="0" speed="9.84" length="15.58" shape="-606.40,113.89 -608.60,111.00 -613.35,108.75 -620.00,108.00"/>
    </edge>
    <edge id=":gneJ43_56" function="internal">
        <lane id=":gneJ43_56_0" index="0" speed="10.36" length="16.53" shape="-606.40,112.27 -608.60,108.60 -613.35,105.75 -620.00,104.80"/>
    </edge>
    <edge id=":gneJ43_57" function="internal">
        <lane id=":gneJ43_57_0" index="0" speed="13.89" length="23.99" shape="-600.00,99.54 -598.60,96.60 -590.85,90.75 -580.00,88.80"/>
    </edge>
    <edge id=":gneJ43_58" function="internal">
        <lane id=":gneJ43_58_0" index="0" speed="13.54" length="23.33" shape="-600.00,101.63 -598.60,99.00 -590.85,93.75 -580.00,92.00"/>
    </edge>
    <edge id=":gneJ43_59" function="internal">
        <lane id=":gneJ43_59_0" index="0" speed="12.72" length="25.98" shape="-600.00,108.67 -596.20,101.40 -589.45,96.75 -580.00,95.20"/>
    </edge>
    <edge id=":gneJ43_60" function="internal">
        <lane id=":gneJ43_60_0" index="0" speed="12.28" length="24.80" shape="-600.00,110.13 -596.20,103.80 -589.45,99.75 -580.00,98.40"/>
    </edge>
    <edge id=":gneJ43_14" function="internal">
        <lane id=":gneJ43_14_0" index="0" speed="6.51" length="9.03" shape="-580.00,114.40 -582.45,114.75 -584.20,115.80 -585.25,117.55 -585.60,120.00"/>
    </edge>
    <edge id=":gneJ43_15" function="internal">
        <lane id=":gneJ43_15_0" index="0" speed="8.00" length="14.19" shape="-580.00,111.20 -583.85,111.75 -586.60,113.40 -588.25,116.15 -588.80,120.00"/>
    </edge>
    <edge id=":gneJ43_16" function="internal">
        <lane id=":gneJ43_16_0" index="0" speed="8.67" length="16.85" shape="-580.00,111.20 -585.25,111.75 -589.00,113.40 -591.25,116.15 -592.00,120.00"/>
    </edge>
    <edge id=":gneJ43_17" function="internal">
        <lane id=":gneJ43_17_0" index="0" speed="9.32" length="19.63" shape="-580.00,111.20 -586.65,111.75 -591.40,113.40 -594.25,116.15 -595.20,120.00"/>
    </edge>
    <edge id=":gneJ43_18" function="internal">
        <lane id=":gneJ43_18_0" index="0" speed="13.89" length="40.00" shape="-580.00,111.20 -620.00,111.20"/>
    </edge>
    <edge id=":gneJ43_19" function="internal">
        <lane id=":gneJ43_19_0" index="0" speed="13.89" length="25.59" shape="-580.00,111.20 -588.62,107.58 -598.93,98.93 -600.72,96.80"/>
    </edge>
    <edge id=":gneJ43_20" function="internal">
        <lane id=":gneJ43_20_0" index="0" speed="13.68" length="24.17" shape="-580.00,111.20 -588.12,107.58 -597.33,98.93 -598.89,96.80"/>
    </edge>
    <edge id=":gneJ43_21" function="internal">
        <lane id=":gneJ43_21_0" index="0" speed="8.18" length="16.59" shape="-580.00,111.20 -588.40,105.60 -591.20,100.00 -590.75,99.11"/>
        <lane id=":gneJ43_21_1" index="1" speed="7.00" length="16.59" shape="-580.00,111.20 -586.00,107.20 -588.00,103.20 -586.15,99.49"/>
    </edge>
    <edge id=":gneJ43_23" function="internal">
        <lane id=":gneJ43_23_0" index="0" speed="10.41" length="10.42" shape="-580.00,108.00 -588.05,108.75 -590.22,109.60"/>
    </edge>
    <edge id=":gneJ43_24" function="internal">
        <lane id=":gneJ43_24_0" index="0" speed="13.89" length="40.34" shape="-580.00,108.00 -591.95,109.00 -600.00,111.20 -608.05,113.40 -620.00,114.40"/>
        <lane id=":gneJ43_24_1" index="1" speed="13.89" length="40.34" shape="-580.00,108.00 -620.00,108.00"/>
        <lane id=":gneJ43_24_2" index="2" speed="13.89" length="40.34" shape="-580.00,108.00 -591.95,107.00 -600.00,104.80 -608.05,102.60 -620.00,101.60"/>
        <lane id=":gneJ43_24_3" index="3" speed="13.89" length="40.34" shape="-580.00,104.80 -620.00,104.80"/>
    </edge>
    <edge id=":gneJ43_28" function="internal">
        <lane id=":gneJ43_28_0" index="0" speed="12.62" length="16.71" shape="-580.00,104.80 -587.62,102.17 -594.39,96.80"/>
    </edge>
    <edge id=":gneJ43_29" function="internal">
        <lane id=":gneJ43_29_0" index="0" speed="12.28" length="11.88" shape="-580.00,101.60 -589.45,100.25 -591.46,99.05"/>
    </edge>
    <edge id=":gneJ43_61" function="internal">
        <lane id=":gneJ43_61_0" index="0" speed="13.89" length="20.02" shape="-600.72,96.80 -607.58,88.62 -611.20,80.00"/>
    </edge>
    <edge id=":gneJ43_62" function="internal">
        <lane id=":gneJ43_62_0" index="0" speed="13.68" length="19.30" shape="-598.89,96.80 -604.88,88.62 -608.00,80.00"/>
    </edge>
    <edge id=":gneJ43_63" function="internal">
        <lane id=":gneJ43_63_0" index="0" speed="8.18" length="15.36" shape="-590.75,99.11 -588.40,94.40 -580.00,88.80"/>
    </edge>
    <edge id=":gneJ43_64" function="internal">
        <lane id=":gneJ43_64_0" index="0" speed="7.00" length="7.54" shape="-586.15,99.49 -586.00,99.20 -580.00,95.20"/>
    </edge>
    <edge id=":gneJ43_65" function="internal">
        <lane id=":gneJ43_65_0" index="0" speed="10.41" length="14.31" shape="-590.22,109.60 -593.80,111.00 -597.25,114.75 -598.40,120.00"/>
    </edge>
    <edge id=":gneJ43_66" function="internal">
        <lane id=":gneJ43_66_0" index="0" speed="12.62" length="20.13" shape="-594.39,96.80 -595.73,95.73 -602.17,87.62 -604.80,80.00"/>
    </edge>
    <edge id=":gneJ43_67" function="internal">
        <lane id=":gneJ43_67_0" index="0" speed="12.28" length="22.95" shape="-591.46,99.05 -596.20,96.20 -600.25,89.45 -601.60,80.00"/>
    </edge>
    <edge id=":gneJ43_30" function="internal">
        <lane id=":gneJ43_30_0" index="0" speed="6.51" length="9.03" shape="-585.60,80.00 -585.25,82.45 -584.20,84.20 -582.45,85.25 -580.00,85.60"/>
    </edge>
    <edge id=":gneJ43_31" function="internal">
        <lane id=":gneJ43_31_0" index="0" speed="7.33" length="11.73" shape="-585.60,80.00 -585.25,83.85 -584.20,86.60 -582.45,88.25 -580.00,88.80"/>
    </edge>
    <edge id=":gneJ43_32" function="internal">
        <lane id=":gneJ43_32_0" index="0" speed="13.89" length="40.00" shape="-585.60,80.00 -585.60,120.00"/>
        <lane id=":gneJ43_32_1" index="1" speed="13.89" length="40.00" shape="-588.80,80.00 -588.80,120.00"/>
        <lane id=":gneJ43_32_2" index="2" speed="13.89" length="40.00" shape="-592.00,80.00 -592.00,120.00"/>
        <lane id=":gneJ43_32_3" index="3" speed="13.89" length="40.00" shape="-595.20,80.00 -595.20,120.00"/>
        <lane id=":gneJ43_32_4" index="4" speed="13.89" length="40.00" shape="-598.40,80.00 -598.40,120.00"/>
    </edge>
    <edge id=":gneJ43_37" function="internal">
        <lane id=":gneJ43_37_0" index="0" speed="12.26" length="5.91" shape="-598.40,80.00 -600.00,85.69"/>
    </edge>
    <edge id=":gneJ43_38" function="internal">
        <lane id=":gneJ43_38_0" index="0" speed="11.87" length="5.60" shape="-598.40,80.00 -600.00,85.36"/>
    </edge>
    <edge id=":gneJ43_68" function="internal">
        <lane id=":gneJ43_68_0" index="0" speed="12.26" length="28.80" shape="-600.00,85.69 -600.54,87.62 -605.92,95.73 -612.93,102.17 -620.00,104.80"/>
    </edge>
    <edge id=":gneJ43_69" function="internal">
        <lane id=":gneJ43_69_0" index="0" speed="11.87" length="26.90" shape="-600.00,85.36 -600.52,87.12 -605.87,94.13 -612.88,99.47 -620.00,101.60"/>
    </edge>
    <edge id=":gneJ43_39" function="internal">
        <lane id=":gneJ43_39_0" index="0" speed="6.51" length="9.03" shape="-620.00,85.60 -617.55,85.25 -615.80,84.20 -614.75,82.45 -614.40,80.00"/>
    </edge>
    <edge id=":gneJ43_40" function="internal">
        <lane id=":gneJ43_40_0" index="0" speed="8.00" length="14.19" shape="-620.00,88.80 -616.15,88.25 -613.40,86.60 -611.75,83.85 -611.20,80.00"/>
    </edge>
    <edge id=":gneJ43_41" function="internal">
        <lane id=":gneJ43_41_0" index="0" speed="8.67" length="16.85" shape="-620.00,88.80 -614.75,88.25 -611.00,86.60 -608.75,83.85 -608.00,80.00"/>
    </edge>
    <edge id=":gneJ43_42" function="internal">
        <lane id=":gneJ43_42_0" index="0" speed="13.89" length="40.00" shape="-620.00,88.80 -580.00,88.80"/>
    </edge>
    <edge id=":gneJ43_43" function="internal">
        <lane id=":gneJ43_43_0" index="0" speed="9.84" length="8.68" shape="-620.00,92.00 -613.35,91.25 -611.56,90.40"/>
    </edge>
    <edge id=":gneJ43_44" function="internal">
        <lane id=":gneJ43_44_0" index="0" speed="10.41" length="10.42" shape="-620.00,92.00 -611.95,91.25 -609.78,90.40"/>
    </edge>
    <edge id=":gneJ43_45" function="internal">
        <lane id=":gneJ43_45_0" index="0" speed="13.89" length="40.45" shape="-620.00,92.00 -608.05,91.00 -600.00,88.80 -591.95,86.60 -580.00,85.60"/>
        <lane id=":gneJ43_45_1" index="1" speed="13.89" length="40.45" shape="-620.00,92.00 -580.00,92.00"/>
        <lane id=":gneJ43_45_2" index="2" speed="13.89" length="40.45" shape="-620.00,92.00 -608.05,93.00 -600.00,95.20 -591.95,97.40 -580.00,98.40"/>
    </edge>
    <edge id=":gneJ43_48" function="internal">
        <lane id=":gneJ43_48_0" index="0" speed="13.68" length="22.28" shape="-620.00,92.00 -611.38,95.12 -601.07,102.67 -600.84,102.91"/>
    </edge>